tests/data/state_estimation/link-after-trafo-with-node-injection-sensor-nrse/asym_output.json
{
  "version": "1.0",
  "type": "asym_output",
  "is_batch": false,
  "attributes": {},
  "data": {
    "node": [
      {"id": 30, "energized": 1, "u_pu": [1.0000000100638562, 1.0000000100638426, 1.0000000100638553], "u": [230.94010999999833, 230.9401099999952, 230.94010999999813], "u_angle": [-3.6069702532602313e-05, -2.0944311720957329, 2.0943590326906585], "p": [0, 0, 0], "q": [0, 0, 0]},
      {"id": 90, "energized": 1, "u_pu": [1.0000101198407529, 1.0000101185294223, 1.0000101189297388], "u": [5773.5611188240864, 5773.5611112531151, 5773.5611135643439], "u_angle": [0, -2.0943951000605492, 2.0943951026485279], "p": [393.33711916832954, 393.34705296024589, 393.33711878749347], "q": [0.010212439213057258, 0.00027904659366014109, 0.005245307208308481]},
      {"id": 112, "energized": 1, "u_pu": [1.000000010063856, 1.0000000100638429, 1.0000000100638553], "u": [230.94010999999827, 230.94010999999526, 230.94010999999813], "u_angle": [-3.6069702532602313e-05, -2.0944311720957329, 2.0943590326906585], "p": [0, 0, 0], "q": [0, 0, 0]}
    ],
    "source": [
      {"id": 207, "energized": 1, "p": [393.33711916832954, 393.34705296024589, 393.33711878749347], "q": [0.010212439213057258, 0.00027904659366014109, 0.005245307208308481], "i": [0.068127298075787435, 0.068129018708000033, 0.068127298054984742], "s": [393.33711930090527, 393.34705296034485, 393.33711882246757], "pf": [0.99999999966294628, 0.99999999999974842, 0.99999999991108368]}
    ],
    "transformer": [
      {"id": 208, "energized": 1, "loading": 0.0018730496683868534, "p_from": [393.33711916832954, 393.34705296024589, 393.33711878749347], "q_from": [0.010212439213057258, 0.00027904659367990648, 0.0052453072082978879], "i_from": [0.068127298075787435, 0.068129018708000019, 0.068127298054984742], "s_from": [393.33711930090527, 393.34705296034485, 393.33711882246757], "p_to": [0.0021866079669657754, -0.0077474988176104848, 0.0021866296982936168], "q_to": [-0.0031187066301451298, 0.00681540331756798, 0.001848424881236158], "i_to": [1.6492944601843143e-05, 4.4680838629438272e-05, 1.2398102536798541e-05], "s_to": [0.0038088824405735325, 0.010318597787974511, 0.0028632191636395105]}
    ],
    "link": [
      {"id": 229, "energized": 1, "loading": 0, "p_from": [0.0099339283959259655, -0.0073611693242068748, 0], "q_from": [-0.0049674120983437707, 0.007118116679360186, 0], "i_from": [4.8093290952436835e-05, 4.4339823403351318e-05, 0], "s_from": [0.011106669902817688, 0.010239843694150316, 0], "p_to": [-0.009933928395925962, 0.0073611693242068774, 0], "q_to": [0.0049674120983437689, -0.0071181166793601869, 0], "i_to": [4.8093290952436835e-05, 4.4339823403351318e-05, 0], "s_to": [0.011106669902817686, 0.010239843694150317, 0]}
    ],
    "asym_voltage_sensor": [
      {"id": 329, "energized": 1, "u_residual": [1.6922071640175364e-12, 4.8202264672014671e-12, 1.89732318389845e-12]}
    ],
    "asym_power_sensor": [
      {"id": 466, "energized": 1, "p_residual": [-0.0021866079669657754, 0.0077474988176104848, -0.0021866296982936168], "q_residual": [0.0031187066301451298, -0.00681540331756798, -0.001848424881236158]},
      {"id": 467, "energized": 1, "p_residual": [0.0043162699002956351, -0.0026789957446007465, -0.0037121694261432999], "q_residual": [-0.0030165997023741528, 0.0014469418675200853, -0.0079959879743259094]}
    ]
  }
}